Circuit: * /Users/rodrigovazquez/Library/Mobile Documents/3L68KQB4HG~com~readdle~CommonDocuments/Documents/ADC/TP2019/Simulacion/PasaAlto.asc

Direct Newton iteration failed to find .op point.  (Use ".option noopiter" to skip.)
Starting Gmin stepping
Gmin = 10
vernier = 0.5
vernier = 0.25
vernier = 0.125
Gmin = 5.5165
vernier = 0.0625
vernier = 0.03125
vernier = 0.015625
vernier = 0.0078125
Gmin = 5.49501
vernier = 0.00390625
vernier = 0.00195312
vernier = 0.000976562
vernier = 0.000488281
Gmin = 5.50104
Gmin = 0
Gmin stepping succeeded in finding the operating point.


Date: Mon Dec  2 14:36:26 2019
Total elapsed time: 0.037 seconds.

tnom = 27
temp = 27
method = trap
totiter = 1402
traniter = 0
tranpoints = 0
accept = 0
rejected = 0
matrix size = 30
fillins = 47
solver = Normal
Matrix Compiler1:     201 opcodes
Matrix Compiler2: off

